 
 __________________________________
|                                  |
|            CGEM Viewer           |
|           Version  2.06          |
|                                  |
|            B. Penta              |
|  U.S. Naval Research Laboratory  |
|        Stennis Space Center      |
|                                  |
|              Thanks:             |
|     S. Anderson and S. deRada    |
|                                  |
|              Using:              |
|   ----------------------------   |
|          SEAWATER Library        |
|           Version 1.2d           |
|         Phillip P. Morgan        |
|               CSIRO              |
|        seawater@ml.csiro.au      |
|   ----------------------------   |
|            uipickfiles           |
|        Douglas M. Schwarz        |
|   ----------------------------   |
|              pos2dist            |
|             Flora Sun            |
|       University of Toronto      |
|__________________________________|
 
 uipickfiles 
 Copyright (c) 2007, Douglas M. Schwarz 
 All rights reserved. 
  
 Redistribution and use in source and binary forms, with or without 
 modification, are permitted provided that the following conditions are met: 
  
     * Redistributions of source code must retain the above copyright 
       notice, this list of conditions and the following disclaimer. 
     * Redistributions in binary form must reproduce the above copyright 
       notice, this list of conditions and the following disclaimer in 
       the documentation and/or other materials provided with the distribution 
  
 THIS SOFTWARE IS PROVIDED BY THE COPYRIGHT HOLDERS AND CONTRIBUTORS "AS IS" 
 AND ANY EXPRESS OR IMPLIED WARRANTIES, INCLUDING, BUT NOT LIMITED TO, THE 
 IMPLIED WARRANTIES OF MERCHANTABILITY AND FITNESS FOR A PARTICULAR PURPOSE 
 ARE DISCLAIMED. IN NO EVENT SHALL THE COPYRIGHT OWNER OR CONTRIBUTORS BE 
 LIABLE FOR ANY DIRECT, INDIRECT, INCIDENTAL, SPECIAL, EXEMPLARY, OR 
 CONSEQUENTIAL DAMAGES (INCLUDING, BUT NOT LIMITED TO, PROCUREMENT OF 
 SUBSTITUTE GOODS OR SERVICES; LOSS OF USE, DATA, OR PROFITS; OR BUSINESS 
 INTERRUPTION) HOWEVER CAUSED AND ON ANY THEORY OF LIABILITY, WHETHER IN 
 CONTRACT, STRICT LIABILITY, OR TORT (INCLUDING NEGLIGENCE OR OTHERWISE) 
 ARISING IN ANY WAY OUT OF THE USE OF THIS SOFTWARE, EVEN IF ADVISED OF THE 
 POSSIBILITY OF SUCH DAMAGE. 
  
Warning: The HELP function cannot be used in compiled applications. For help please visit the MathWorks web site at www.mathworks.com.

Help for topic 'sw_info' is unavailable.
> In help (line 13)
  In sw_copy (line 162)
  In CGEM_Viewer_2_0 (line 93)
Error using load
Unable to read file 'C:\Users\LisaLenoreLowe\Documents\CGEM_VIEWER\OUTPUT_SAMPLES\GEM_topography.mat'. No such file or directory.
Error in GEM_1D_viewer (line 32)


Error in CGEM_Viewer_2_0 (line 102)
MATLAB:load:couldNotReadFile
